Version 4
SHEET 1 968 680
WIRE 352 -208 112 -208
WIRE 608 -208 352 -208
WIRE 912 -208 608 -208
WIRE 608 -160 608 -208
WIRE 112 -48 112 -208
WIRE 352 32 352 -208
WIRE 912 64 912 -208
WIRE 112 80 112 32
WIRE 112 80 -256 80
WIRE 288 80 112 80
WIRE 608 96 608 -96
WIRE -256 128 -256 80
WIRE 352 144 352 128
WIRE 544 144 352 144
WIRE 112 176 112 80
WIRE 352 192 352 144
WIRE 608 208 608 192
WIRE -256 336 -256 208
WIRE 112 336 112 256
WIRE 112 336 -256 336
WIRE 352 336 352 272
WIRE 352 336 112 336
WIRE 608 336 608 288
WIRE 608 336 352 336
WIRE 912 336 912 144
WIRE 912 336 608 336
WIRE 608 384 608 336
FLAG 608 384 0
SYMBOL voltage 912 48 R0
WINDOW 123 0 0 Left 0
WINDOW 39 0 0 Left 0
SYMATTR InstName V1
SYMATTR Value 5
SYMBOL res 96 -64 R0
SYMATTR InstName R1
SYMATTR Value 40k
SYMBOL res 96 160 R0
SYMATTR InstName R2
SYMATTR Value 40k
SYMBOL npn2 288 32 R0
SYMATTR InstName Q1
SYMATTR Value BC547B
SYMBOL npn 544 96 R0
SYMATTR InstName Q2
SYMATTR Value BC639
SYMBOL res 592 192 R0
SYMATTR InstName R3
SYMATTR Value 35
SYMBOL res 336 176 R0
SYMATTR InstName R4
SYMATTR Value 50
SYMBOL LED 592 -160 R0
SYMATTR InstName D1
SYMATTR Value KA3529
SYMBOL voltage -256 112 R0
WINDOW 123 0 0 Left 0
WINDOW 39 0 0 Left 0
SYMATTR InstName V2
SYMATTR Value 5
TEXT -160 400 Left 2 !.include BC639_LTSpice_Model.txt
TEXT -288 424 Left 2 !.tran 10m
TEXT -136 496 Left 2 !.include KA3529_LTSpice_Model.txt
