Version 4
SHEET 1 1576 680
WIRE 592 -16 592 -96
WIRE 592 -16 448 -16
WIRE 272 32 176 32
WIRE 384 32 352 32
WIRE 592 32 592 -16
WIRE 528 80 448 80
WIRE 592 224 592 128
FLAG 592 224 0
FLAG 592 -240 Vsupply
FLAG 176 32 Vin
FLAG 176 112 0
SYMBOL npn2 384 -16 R0
WINDOW 3 -21 -36 Left 2
SYMATTR InstName Q1
SYMATTR Value BC547B
SYMBOL npn 528 32 R0
WINDOW 3 88 106 Left 2
SYMATTR InstName Q2
SYMATTR Value BC639
SYMBOL LED 576 -160 R0
SYMATTR InstName D1
SYMATTR Value KA3529
SYMBOL res 576 -256 R0
SYMATTR InstName R1
SYMATTR Value 1k
SYMBOL res 368 16 R90
WINDOW 0 0 56 VBottom 2
WINDOW 3 32 56 VTop 2
SYMATTR InstName R2
SYMATTR Value 5
SYMBOL voltage 176 16 R0
WINDOW 123 0 0 Left 0
WINDOW 39 0 0 Left 0
SYMATTR InstName V1
SYMATTR Value PULSE(0 5 0 0 0 200u 400u)
TEXT -160 400 Left 2 !.include BC639_LTSpice_Model.txt
TEXT -288 424 Left 2 !.tran 10m
TEXT -136 496 Left 2 !.include KA3529_LTSpice_Model.txt
